502 1,2-ethanediol
 OpenBabel03161000573D

 10  9  0  0  0  0  0  0  0  0999 V2000
    0.7027   -0.5933   -0.3023 C   0  0  0  0  0
   -0.7027   -0.5933    0.3023 C   0  0  0  0  0
    2.3041    0.5049   -0.2296 H   0  0  0  0  0
   -2.3041    0.5049    0.2296 H   0  0  0  0  0
    1.4264    0.5429    0.1744 O   0  0  0  0  0
   -1.4264    0.5429   -0.1744 O   0  0  0  0  0
    1.2240   -1.5049   -0.0100 H   0  0  0  0  0
    0.6308   -0.5485   -1.3890 H   0  0  0  0  0
   -1.2240   -1.5049    0.0100 H   0  0  0  0  0
   -0.6308   -0.5485    1.3890 H   0  0  0  0  0
  1  2  1  0  0  0
  1  5  1  0  0  0
  1  7  1  0  0  0
  1  8  1  0  0  0
  2  6  1  0  0  0
  2  9  1  0  0  0
  2 10  1  0  0  0
  5  3  1  0  0  0
  6  4  1  0  0  0
M  END
$$$$
